<?xml version="1.0" encoding="UTF-8"?>
<!-- generated on 2020-09-24 15:25:06.786077 by randomTrips.py v1_5_0+0464-744bef2e7c
  options: -n highway-br116.net.xml <doubleminus>trip-attributes=departLane="best" departSpeed="max" departPos="random" -r br116.rou.xml -b 0 -e 10 -p 0.1
-->
<routes xmlns:xsi="http://www.w3.org/2001/XMLSchema-instance" xsi:noNamespaceSchemaLocation="http://sumo.dlr.de/xsd/routes_file.xsd">
    <trip id="0" depart="0.00" from="372634263#3" to="372634263#5-AddedOnRampEdge" departLane="best" departSpeed="max" departPos="random"/>
    <trip id="1" depart="0.10" from="372634263#7-AddedOnRampEdge" to="gneE49" departLane="best" departSpeed="max" departPos="random"/>
    <trip id="2" depart="0.20" from="372634263#5-AddedOffRampEdge" to="372634264" departLane="best" departSpeed="max" departPos="random"/>
    <trip id="3" depart="0.30" from="gneE48" to="gneE45" departLane="best" departSpeed="max" departPos="random"/>
    <trip id="4" depart="0.40" from="gneE40" to="372634265#3" departLane="best" departSpeed="max" departPos="random"/>
    <trip id="5" depart="0.50" from="378235159#3" to="gneE52" departLane="best" departSpeed="max" departPos="random"/>
    <trip id="6" depart="0.60" from="gneE49" to="gneE42" departLane="best" departSpeed="max" departPos="random"/>
    <trip id="7" depart="0.70" from="372634265#3-AddedOnRampEdge" to="372634263#1" departLane="best" departSpeed="max" departPos="random"/>
    <trip id="8" depart="0.80" from="608991522#5-AddedOffRampEdge" to="372634267" departLane="best" departSpeed="max" departPos="random"/>
    <trip id="9" depart="0.90" from="372634265#9" to="gneE48" departLane="best" departSpeed="max" departPos="random"/>
    <trip id="10" depart="1.00" from="378235159#10" to="372634265#2" departLane="best" departSpeed="max" departPos="random"/>
    <trip id="11" depart="1.10" from="372634263#1" to="gneE49" departLane="best" departSpeed="max" departPos="random"/>
    <trip id="12" depart="1.20" from="gneE48" to="372634265#6" departLane="best" departSpeed="max" departPos="random"/>
    <trip id="13" depart="1.30" from="608991522#2" to="372634265#3-AddedOnRampEdge" departLane="best" departSpeed="max" departPos="random"/>
    <trip id="14" depart="1.40" from="608991522#5-AddedOffRampEdge" to="gneE41" departLane="best" departSpeed="max" departPos="random"/>
    <trip id="15" depart="1.50" from="372634262" to="608991522#7" departLane="best" departSpeed="max" departPos="random"/>
    <trip id="16" depart="1.60" from="378235159#3" to="372634265#6" departLane="best" departSpeed="max" departPos="random"/>
    <trip id="17" depart="1.70" from="378235159#1" to="608991522#6" departLane="best" departSpeed="max" departPos="random"/>
    <trip id="18" depart="1.80" from="372634265#7" to="378235159#5" departLane="best" departSpeed="max" departPos="random"/>
    <trip id="19" depart="1.90" from="gneE42" to="372634263#5" departLane="best" departSpeed="max" departPos="random"/>
    <trip id="20" depart="2.00" from="608991522#7" to="608991522#3" departLane="best" departSpeed="max" departPos="random"/>
    <trip id="21" depart="2.10" from="gneE29" to="608991522#7" departLane="best" departSpeed="max" departPos="random"/>
    <trip id="22" depart="2.20" from="372634265#6-AddedOnRampEdge" to="gneE45" departLane="best" departSpeed="max" departPos="random"/>
    <trip id="23" depart="2.30" from="gneE17" to="754831550" departLane="best" departSpeed="max" departPos="random"/>
    <trip id="24" depart="2.40" from="372634261" to="372634264" departLane="best" departSpeed="max" departPos="random"/>
    <trip id="25" depart="2.50" from="754822745" to="754822745" departLane="best" departSpeed="max" departPos="random"/>
    <trip id="26" depart="2.60" from="gneE41" to="gneE34" departLane="best" departSpeed="max" departPos="random"/>
    <trip id="27" depart="2.70" from="372634263#0" to="gneE39" departLane="best" departSpeed="max" departPos="random"/>
    <trip id="28" depart="2.80" from="gneE17" to="372634265#6" departLane="best" departSpeed="max" departPos="random"/>
    <trip id="29" depart="2.90" from="378235159#9" to="gneE35" departLane="best" departSpeed="max" departPos="random"/>
    <trip id="30" depart="3.00" from="754831550" to="378235159#8" departLane="best" departSpeed="max" departPos="random"/>
    <trip id="31" depart="3.10" from="gneE52" to="372634263#6" departLane="best" departSpeed="max" departPos="random"/>
    <trip id="32" depart="3.20" from="608991522#2" to="gneE17" departLane="best" departSpeed="max" departPos="random"/>
    <trip id="33" depart="3.30" from="372634263#6" to="372634265#3" departLane="best" departSpeed="max" departPos="random"/>
    <trip id="34" depart="3.40" from="372634265#0" to="378235159#6" departLane="best" departSpeed="max" departPos="random"/>
    <trip id="35" depart="3.50" from="gneE17" to="372634265#3-AddedOnRampEdge" departLane="best" departSpeed="max" departPos="random"/>
    <trip id="36" depart="3.60" from="372634263#1" to="378235159#8" departLane="best" departSpeed="max" departPos="random"/>
    <trip id="37" depart="3.70" from="378235159#7" to="372634265#3" departLane="best" departSpeed="max" departPos="random"/>
    <trip id="38" depart="3.80" from="754831550" to="378235159#4-AddedOffRampEdge" departLane="best" departSpeed="max" departPos="random"/>
    <trip id="39" depart="3.90" from="372634263#5" to="gneE51" departLane="best" departSpeed="max" departPos="random"/>
    <trip id="40" depart="4.00" from="372634266" to="754831548" departLane="best" departSpeed="max" departPos="random"/>
    <trip id="41" depart="4.10" from="372634263#8" to="378235159#8" departLane="best" departSpeed="max" departPos="random"/>
    <trip id="42" depart="4.20" from="608991522#7" to="372634263#7-AddedOnRampEdge" departLane="best" departSpeed="max" departPos="random"/>
    <trip id="43" depart="4.30" from="378235159#10-AddedOnRampEdge" to="372634263#0" departLane="best" departSpeed="max" departPos="random"/>
    <trip id="44" depart="4.40" from="372634263#0" to="372634263#5" departLane="best" departSpeed="max" departPos="random"/>
    <trip id="45" depart="4.50" from="gneE17" to="378235159#4" departLane="best" departSpeed="max" departPos="random"/>
    <trip id="46" depart="4.60" from="372634263#5" to="372634263#8" departLane="best" departSpeed="max" departPos="random"/>
    <trip id="47" depart="4.70" from="608991522#5" to="372634265#0" departLane="best" departSpeed="max" departPos="random"/>
    <trip id="48" depart="4.80" from="gneE35" to="372634265#7" departLane="best" departSpeed="max" departPos="random"/>
    <trip id="49" depart="4.90" from="372634265#7" to="372634263#0" departLane="best" departSpeed="max" departPos="random"/>
    <trip id="50" depart="5.00" from="372634265#3" to="372634264" departLane="best" departSpeed="max" departPos="random"/>
    <trip id="51" depart="5.10" from="372634263#4" to="372634265#7" departLane="best" departSpeed="max" departPos="random"/>
    <trip id="52" depart="5.20" from="372634265#3" to="608991522#2" departLane="best" departSpeed="max" departPos="random"/>
    <trip id="53" depart="5.30" from="372634263#0" to="gneE19" departLane="best" departSpeed="max" departPos="random"/>
    <trip id="54" depart="5.40" from="378235159#10" to="372634263#5" departLane="best" departSpeed="max" departPos="random"/>
    <trip id="55" depart="5.50" from="gneE38" to="372634263#5" departLane="best" departSpeed="max" departPos="random"/>
    <trip id="56" depart="5.60" from="378235159#5" to="378235159#9" departLane="best" departSpeed="max" departPos="random"/>
    <trip id="57" depart="5.70" from="378235159#1" to="754822745" departLane="best" departSpeed="max" departPos="random"/>
    <trip id="58" depart="5.80" from="gneE35" to="372634265#0" departLane="best" departSpeed="max" departPos="random"/>
    <trip id="59" depart="5.90" from="372634265#6-AddedOnRampEdge" to="gneE43" departLane="best" departSpeed="max" departPos="random"/>
    <trip id="60" depart="6.00" from="608991522#4" to="608991522#8" departLane="best" departSpeed="max" departPos="random"/>
    <trip id="61" depart="6.10" from="378235159#4-AddedOffRampEdge" to="372634261" departLane="best" departSpeed="max" departPos="random"/>
    <trip id="62" depart="6.20" from="gneE49" to="372634263#8" departLane="best" departSpeed="max" departPos="random"/>
    <trip id="63" depart="6.30" from="372634263#5-AddedOffRampEdge" to="gneE1" departLane="best" departSpeed="max" departPos="random"/>
    <trip id="64" depart="6.40" from="gneE1" to="608991522#2" departLane="best" departSpeed="max" departPos="random"/>
    <trip id="65" depart="6.50" from="gneE42" to="372634263#5-AddedOffRampEdge" departLane="best" departSpeed="max" departPos="random"/>
    <trip id="66" depart="6.60" from="378235159#7" to="378235159#1" departLane="best" departSpeed="max" departPos="random"/>
    <trip id="67" depart="6.70" from="gneE51" to="372634265#3" departLane="best" departSpeed="max" departPos="random"/>
    <trip id="68" depart="6.80" from="gneE45" to="372634263#3" departLane="best" departSpeed="max" departPos="random"/>
    <trip id="69" depart="6.90" from="372634263#7" to="372634264" departLane="best" departSpeed="max" departPos="random"/>
    <trip id="70" depart="7.00" from="gneE35" to="372634265#9" departLane="best" departSpeed="max" departPos="random"/>
    <trip id="71" depart="7.10" from="372634263#5-AddedOnRampEdge" to="gneE51" departLane="best" departSpeed="max" departPos="random"/>
    <trip id="72" depart="7.20" from="754831548" to="372634263#5" departLane="best" departSpeed="max" departPos="random"/>
    <trip id="73" depart="7.30" from="372634265#3-AddedOnRampEdge" to="732746860" departLane="best" departSpeed="max" departPos="random"/>
    <trip id="74" depart="7.40" from="gneE30" to="gneE30" departLane="best" departSpeed="max" departPos="random"/>
    <trip id="75" depart="7.50" from="372634263#5-AddedOffRampEdge" to="gneE1" departLane="best" departSpeed="max" departPos="random"/>
    <trip id="76" depart="7.60" from="372634268" to="gneE50" departLane="best" departSpeed="max" departPos="random"/>
    <trip id="77" depart="7.70" from="378235159#9" to="378235159#0" departLane="best" departSpeed="max" departPos="random"/>
    <trip id="78" depart="7.80" from="gneE19" to="372634263#5-AddedOnRampEdge" departLane="best" departSpeed="max" departPos="random"/>
    <trip id="79" depart="7.90" from="378235159#10" to="372634263#5-AddedOnRampEdge" departLane="best" departSpeed="max" departPos="random"/>
    <trip id="80" depart="8.00" from="372634263#8" to="372634261" departLane="best" departSpeed="max" departPos="random"/>
    <trip id="81" depart="8.10" from="378235159#3" to="378235159#10" departLane="best" departSpeed="max" departPos="random"/>
    <trip id="82" depart="8.20" from="608991522#5-AddedOffRampEdge" to="372634263#4" departLane="best" departSpeed="max" departPos="random"/>
    <trip id="83" depart="8.30" from="378235159#10" to="372634262" departLane="best" departSpeed="max" departPos="random"/>
    <trip id="84" depart="8.40" from="372634265#6" to="372634263#0" departLane="best" departSpeed="max" departPos="random"/>
    <trip id="85" depart="8.50" from="754822745" to="372634263#6" departLane="best" departSpeed="max" departPos="random"/>
    <trip id="86" depart="8.60" from="378235159#1" to="372634265#2" departLane="best" departSpeed="max" departPos="random"/>
    <trip id="87" depart="8.70" from="372634265#6" to="372634263#6" departLane="best" departSpeed="max" departPos="random"/>
    <trip id="88" depart="8.80" from="378235159#8" to="gneE43" departLane="best" departSpeed="max" departPos="random"/>
    <trip id="89" depart="8.90" from="gneE42" to="gneE49" departLane="best" departSpeed="max" departPos="random"/>
    <trip id="90" depart="9.00" from="gneE49" to="608991522#9" departLane="best" departSpeed="max" departPos="random"/>
    <trip id="91" depart="9.10" from="372634266" to="gneE39" departLane="best" departSpeed="max" departPos="random"/>
    <trip id="92" depart="9.20" from="gneE42" to="gneE46" departLane="best" departSpeed="max" departPos="random"/>
    <trip id="93" depart="9.30" from="608991522#5-AddedOffRampEdge" to="gneE47" departLane="best" departSpeed="max" departPos="random"/>
    <trip id="94" depart="9.40" from="gneE1" to="372634263#1" departLane="best" departSpeed="max" departPos="random"/>
    <trip id="95" depart="9.50" from="372634262" to="372634263#1" departLane="best" departSpeed="max" departPos="random"/>
    <trip id="96" depart="9.60" from="378235159#9" to="378235159#8" departLane="best" departSpeed="max" departPos="random"/>
    <trip id="97" depart="9.70" from="gneE50" to="gneE51" departLane="best" departSpeed="max" departPos="random"/>
    <trip id="98" depart="9.80" from="754831548" to="608991522#9" departLane="best" departSpeed="max" departPos="random"/>
    <trip id="99" depart="9.90" from="372634267" to="372634265#6" departLane="best" departSpeed="max" departPos="random"/>
    <trip id="100" depart="10.00" from="372634268" to="gneE30" departLane="best" departSpeed="max" departPos="random"/>
</routes>
