<?xml version="1.0" encoding="UTF-8"?>

<!-- generated on Thu Sep 24 15:28:17 2020 by Eclipse SUMO duarouter Version v1_5_0+0464-744bef2e7c
<configuration xmlns:xsi="http://www.w3.org/2001/XMLSchema-instance" xsi:noNamespaceSchemaLocation="http://sumo.dlr.de/xsd/duarouterConfiguration.xsd">

    <input>
        <net-file value="highway-br116.net.xml"/>
        <route-files value="trips.trips.xml"/>
    </input>

    <output>
        <output-file value="br116.rou.xml"/>
        <alternatives-output value="br116.rou.alt.xml"/>
    </output>

    <time>
        <begin value="0.0"/>
        <end value="10.0"/>
    </time>

    <report>
        <no-warnings value="true"/>
        <ignore-errors value="true"/>
        <no-step-log value="true"/>
    </report>

</configuration>
-->

<routes xmlns:xsi="http://www.w3.org/2001/XMLSchema-instance" xsi:noNamespaceSchemaLocation="http://sumo.dlr.de/xsd/routes_file.xsd">
    <vehicle id="0" depart="0.00" departLane="best" departPos="random" departSpeed="max">
        <route edges="372634265#9 gneE28 gneE40 gneE29 gneE41 gneE30 gneE43 gneE39 gneE34 gneE38 gneE35 gneE42 378235159#0 378235159#1 378235159#2 378235159#3 378235159#4 378235159#4-AddedOffRampEdge 378235159#5 378235159#6 378235159#7 378235159#8 378235159#9 378235159#10-AddedOnRampEdge 378235159#10 372634264 372634263#0 372634263#1 372634263#2 372634263#3 372634263#4 372634263#5-AddedOnRampEdge 372634263#5 372634263#5-AddedOffRampEdge 372634263#6 372634263#7-AddedOnRampEdge"/>
    </vehicle>
    <vehicle id="1" depart="0.05" departLane="best" departPos="random" departSpeed="max">
        <route edges="gneE35 gneE42 378235159#0 378235159#1 378235159#2 378235159#3 378235159#4 378235159#4-AddedOffRampEdge 378235159#5 378235159#6 378235159#7 378235159#8 378235159#9 378235159#10-AddedOnRampEdge 378235159#10 372634264 372634263#0 372634263#1 372634263#2 372634263#3 372634263#4 372634263#5-AddedOnRampEdge 372634263#5 372634263#5-AddedOffRampEdge 372634261 608991522#4 608991522#5 608991522#5-AddedOffRampEdge"/>
    </vehicle>
    <vehicle id="2" depart="0.10" departLane="best" departPos="random" departSpeed="max">
        <route edges="754831550 733263416 754831548 372634263#5-AddedOnRampEdge 372634263#5 372634263#5-AddedOffRampEdge 372634263#6 372634263#7-AddedOnRampEdge 372634263#7 372634263#8 gneE45 gneE47 gneE46 gneE48 gneE49 gneE50 gneE51 gneE52 gneE17"/>
    </vehicle>
    <vehicle id="3" depart="0.15" departLane="best" departPos="random" departSpeed="max">
        <route edges="gneE52 gneE17 gneE18 gneE19 608991522#2 608991522#2-AddedOffRampEdge 608991522#3 608991522#4 608991522#5 608991522#5-AddedOffRampEdge 608991522#6 608991522#7 608991522#8 608991522#9 372634266 372634265#0 372634265#1 372634268 378235159#10-AddedOnRampEdge 378235159#10 372634264 372634263#0 372634263#1 372634263#2 372634263#3 372634263#4 372634263#5-AddedOnRampEdge"/>
    </vehicle>
    <vehicle id="4" depart="0.20" departLane="best" departPos="random" departSpeed="max">
        <route edges="gneE1 372634265#6-AddedOnRampEdge 372634265#6 372634265#7 372634265#8 372634265#9 gneE28 gneE40 gneE29 gneE41 gneE30 gneE43 gneE39 gneE34 gneE38 gneE35 gneE42 378235159#0 378235159#1 378235159#2 378235159#3 378235159#4 378235159#4-AddedOffRampEdge"/>
    </vehicle>
    <vehicle id="5" depart="0.25" departLane="best" departPos="random" departSpeed="max">
        <route edges="378235159#10 372634264 372634263#0 372634263#1 372634263#2 372634263#3 372634263#4 372634263#5-AddedOnRampEdge 372634263#5 372634263#5-AddedOffRampEdge 372634261 608991522#4 608991522#5 608991522#5-AddedOffRampEdge 608991522#6 608991522#7 608991522#8 608991522#9 372634266 372634265#0 372634265#1 372634265#2 372634265#3-AddedOnRampEdge 372634265#3 gneE1 372634265#6-AddedOnRampEdge 372634265#6 372634265#7 372634265#8 372634265#9 gneE28 gneE40 gneE29 gneE41 gneE30 gneE43 gneE39 gneE34 gneE38 gneE35 gneE42 378235159#0 378235159#1 378235159#2"/>
    </vehicle>
    <vehicle id="6" depart="0.30" departLane="best" departPos="random" departSpeed="max">
        <route edges="gneE51"/>
    </vehicle>
    <vehicle id="7" depart="0.35" departLane="best" departPos="random" departSpeed="max">
        <route edges="608991522#2-AddedOffRampEdge 372634262 372634263#7-AddedOnRampEdge 372634263#7 372634263#8 gneE45 gneE47 gneE46 gneE48 gneE49 gneE50 gneE51 gneE52 gneE17 gneE18 gneE19 608991522#2"/>
    </vehicle>
    <vehicle id="8" depart="0.40" departLane="best" departPos="random" departSpeed="max">
        <route edges="378235159#4 378235159#4-AddedOffRampEdge"/>
    </vehicle>
    <vehicle id="9" depart="0.45" departLane="best" departPos="random" departSpeed="max">
        <route edges="gneE51 gneE52 gneE17 gneE18 gneE19 608991522#2 608991522#2-AddedOffRampEdge 608991522#3"/>
    </vehicle>
    <vehicle id="10" depart="0.50" departLane="best" departPos="random" departSpeed="max">
        <route edges="378235159#10-AddedOnRampEdge 378235159#10 372634264 372634263#0 372634263#1 372634263#2 372634263#3 372634263#4 372634263#5-AddedOnRampEdge 372634263#5 372634263#5-AddedOffRampEdge 372634261 608991522#4 608991522#5 608991522#5-AddedOffRampEdge 608991522#6 608991522#7 608991522#8 608991522#9 372634266 372634265#0 372634265#1 372634265#2 372634265#3-AddedOnRampEdge 372634265#3 gneE1 372634265#6-AddedOnRampEdge 372634265#6"/>
    </vehicle>
    <vehicle id="11" depart="0.55" departLane="best" departPos="random" departSpeed="max">
        <route edges="732746860 378235159#6 378235159#7 378235159#8 372634267 372634265#3-AddedOnRampEdge 372634265#3 gneE1 372634265#6-AddedOnRampEdge"/>
    </vehicle>
    <vehicle id="12" depart="0.60" departLane="best" departPos="random" departSpeed="max">
        <route edges="608991522#9 372634266 372634265#0 372634265#1 372634268 378235159#10-AddedOnRampEdge 378235159#10 372634264 372634263#0 372634263#1 372634263#2 372634263#3 372634263#4 372634263#5-AddedOnRampEdge 372634263#5 372634263#5-AddedOffRampEdge 372634263#6 372634263#7-AddedOnRampEdge 372634263#7 372634263#8 gneE45 gneE47 gneE46 gneE48 gneE49 gneE50"/>
    </vehicle>
    <vehicle id="13" depart="0.65" departLane="best" departPos="random" departSpeed="max">
        <route edges="608991522#2-AddedOffRampEdge 372634262 372634263#7-AddedOnRampEdge 372634263#7 372634263#8 gneE45"/>
    </vehicle>
    <vehicle id="14" depart="0.70" departLane="best" departPos="random" departSpeed="max">
        <route edges="372634265#6-AddedOnRampEdge 372634265#6 372634265#7 372634265#8 372634265#9 gneE28 gneE40 gneE29 gneE41 gneE30 gneE43 gneE39 gneE34 gneE38 gneE35 gneE42 378235159#0 378235159#1 378235159#2 378235159#3 378235159#4 378235159#4-AddedOffRampEdge 378235159#5 378235159#6 378235159#7 378235159#8 378235159#9 378235159#10-AddedOnRampEdge 378235159#10 372634264 372634263#0 372634263#1 372634263#2 372634263#3 372634263#4 372634263#5-AddedOnRampEdge 372634263#5 372634263#5-AddedOffRampEdge 372634263#6 372634263#7-AddedOnRampEdge 372634263#7 372634263#8 gneE45 gneE47 gneE46 gneE48 gneE49 gneE50 gneE51 gneE52 gneE17 gneE18 gneE19 608991522#2"/>
    </vehicle>
    <vehicle id="15" depart="0.75" departLane="best" departPos="random" departSpeed="max">
        <route edges="gneE51 gneE52 gneE17 gneE18 gneE19 608991522#2 608991522#2-AddedOffRampEdge 608991522#3 608991522#4 608991522#5 608991522#5-AddedOffRampEdge 608991522#6 608991522#7 608991522#8 608991522#9 372634266 372634265#0 372634265#1 372634265#2 372634265#3-AddedOnRampEdge 372634265#3 gneE1 372634265#6-AddedOnRampEdge 372634265#6 372634265#7 372634265#8 372634265#9 gneE28 gneE40 gneE29 gneE41 gneE30 gneE43 gneE39 gneE34 gneE38 gneE35 gneE42 378235159#0 378235159#1 378235159#2 378235159#3 378235159#4 378235159#4-AddedOffRampEdge 378235159#5 378235159#6 378235159#7 378235159#8 372634267"/>
    </vehicle>
    <vehicle id="16" depart="0.80" departLane="best" departPos="random" departSpeed="max">
        <route edges="608991522#4 608991522#5 608991522#5-AddedOffRampEdge 608991522#6 608991522#7 608991522#8 608991522#9 372634266 372634265#0 372634265#1 372634265#2 372634265#3-AddedOnRampEdge 372634265#3 gneE1"/>
    </vehicle>
    <vehicle id="17" depart="0.85" departLane="best" departPos="random" departSpeed="max">
        <route edges="gneE39 gneE34 gneE38 gneE35 gneE42 378235159#0 378235159#1 378235159#2 378235159#3 378235159#4 378235159#4-AddedOffRampEdge 378235159#5 378235159#6"/>
    </vehicle>
    <vehicle id="18" depart="0.90" departLane="best" departPos="random" departSpeed="max">
        <route edges="gneE19 608991522#2 608991522#2-AddedOffRampEdge 608991522#3 608991522#4 608991522#5 608991522#5-AddedOffRampEdge 608991522#6 608991522#7 608991522#8 608991522#9 372634266 372634265#0 372634265#1 372634265#2 372634265#3-AddedOnRampEdge 372634265#3 gneE1 372634265#6-AddedOnRampEdge 372634265#6 372634265#7 372634265#8 372634265#9 gneE28 gneE40 gneE29 gneE41 gneE30 gneE43 gneE39 gneE34 gneE38 gneE35 gneE42"/>
    </vehicle>
    <vehicle id="19" depart="0.95" departLane="best" departPos="random" departSpeed="max">
        <route edges="378235159#3 378235159#4 378235159#4-AddedOffRampEdge 378235159#5 378235159#6 378235159#7 378235159#8 378235159#9"/>
    </vehicle>
    <vehicle id="20" depart="1.00" departLane="best" departPos="random" departSpeed="max">
        <route edges="gneE45 gneE47 gneE46 gneE48 gneE49 gneE50 gneE51 gneE52 gneE17 gneE18 gneE19 608991522#2 608991522#2-AddedOffRampEdge 608991522#3 608991522#4 608991522#5 608991522#5-AddedOffRampEdge 608991522#6 608991522#7 608991522#8 608991522#9 372634266 372634265#0 372634265#1 372634268 378235159#10-AddedOnRampEdge 378235159#10 372634264"/>
    </vehicle>
    <vehicle id="21" depart="1.05" departLane="best" departPos="random" departSpeed="max">
        <route edges="gneE48 gneE49 gneE50 gneE51 gneE52 gneE17 gneE18"/>
    </vehicle>
    <vehicle id="22" depart="1.10" departLane="best" departPos="random" departSpeed="max">
        <route edges="372634263#5 372634263#5-AddedOffRampEdge 372634261 608991522#4 608991522#5 608991522#5-AddedOffRampEdge 608991522#6 608991522#7 608991522#8 608991522#9 372634266 372634265#0 372634265#1 372634265#2 372634265#3-AddedOnRampEdge 372634265#3 gneE1 372634265#6-AddedOnRampEdge 372634265#6 372634265#7 372634265#8 372634265#9 gneE28 gneE40 gneE29 gneE41"/>
    </vehicle>
    <vehicle id="23" depart="1.15" departLane="best" departPos="random" departSpeed="max">
        <route edges="372634265#8 372634265#9 gneE28 gneE40 gneE29 gneE41 gneE30 gneE43 gneE39 gneE34 gneE38 gneE35 gneE42 378235159#0 378235159#1 378235159#2 378235159#3 378235159#4"/>
    </vehicle>
    <vehicle id="24" depart="1.20" departLane="best" departPos="random" departSpeed="max">
        <route edges="372634261 608991522#4 608991522#5 608991522#5-AddedOffRampEdge 608991522#6 608991522#7 608991522#8 608991522#9 372634266 372634265#0 372634265#1 372634265#2 372634265#3-AddedOnRampEdge 372634265#3 gneE1 372634265#6-AddedOnRampEdge 372634265#6 372634265#7 372634265#8 372634265#9 gneE28 gneE40 gneE29 gneE41 gneE30 gneE43 gneE39"/>
    </vehicle>
    <vehicle id="25" depart="1.25" departLane="best" departPos="random" departSpeed="max">
        <route edges="gneE40 gneE29 gneE41 gneE30 gneE43 gneE39 gneE34 gneE38 gneE35 gneE42 378235159#0 378235159#1 378235159#2 378235159#3 378235159#4 378235159#4-AddedOffRampEdge 378235159#5 378235159#6 378235159#7 378235159#8 378235159#9 378235159#10-AddedOnRampEdge 378235159#10 372634264 372634263#0 372634263#1 372634263#2 372634263#3 372634263#4 372634263#5-AddedOnRampEdge 372634263#5 372634263#5-AddedOffRampEdge 372634261 608991522#4 608991522#5 608991522#5-AddedOffRampEdge 608991522#6"/>
    </vehicle>
    <vehicle id="26" depart="1.30" departLane="best" departPos="random" departSpeed="max">
        <route edges="608991522#2 608991522#2-AddedOffRampEdge 372634262 372634263#7-AddedOnRampEdge"/>
    </vehicle>
    <vehicle id="27" depart="1.35" departLane="best" departPos="random" departSpeed="max">
        <route edges="608991522#9 372634266 372634265#0 372634265#1 372634265#2 372634265#3-AddedOnRampEdge 372634265#3 gneE1 372634265#6-AddedOnRampEdge 372634265#6 372634265#7 372634265#8 372634265#9 gneE28 gneE40 gneE29 gneE41 gneE30 gneE43 gneE39 gneE34 gneE38 gneE35"/>
    </vehicle>
    <vehicle id="28" depart="1.40" departLane="best" departPos="random" departSpeed="max">
        <route edges="gneE51 gneE52 gneE17 gneE18 gneE19 608991522#2 608991522#2-AddedOffRampEdge 608991522#3 608991522#4 608991522#5 608991522#5-AddedOffRampEdge 608991522#6 608991522#7 608991522#8 608991522#9"/>
    </vehicle>
    <vehicle id="29" depart="1.45" departLane="best" departPos="random" departSpeed="max">
        <route edges="gneE48 gneE49 gneE50 gneE51 gneE52 gneE17 gneE18 gneE19 608991522#2 608991522#2-AddedOffRampEdge 608991522#3 608991522#4 608991522#5 608991522#5-AddedOffRampEdge 608991522#6 608991522#7 608991522#8 608991522#9 372634266 372634265#0 372634265#1 372634265#2 372634265#3-AddedOnRampEdge 372634265#3 gneE1 372634265#6-AddedOnRampEdge 372634265#6 372634265#7 372634265#8 372634265#9 gneE28 gneE40 gneE29 gneE41 gneE30 gneE43 gneE39 gneE34 gneE38 gneE35 gneE42 378235159#0 378235159#1 378235159#2 378235159#3 378235159#4 378235159#4-AddedOffRampEdge"/>
    </vehicle>
    <vehicle id="30" depart="1.50" departLane="best" departPos="random" departSpeed="max">
        <route edges="372634263#1 372634263#2 372634263#3 372634263#4 372634263#5-AddedOnRampEdge 372634263#5 372634263#5-AddedOffRampEdge 372634261 608991522#4 608991522#5 608991522#5-AddedOffRampEdge 608991522#6 608991522#7 608991522#8 608991522#9 372634266 372634265#0 372634265#1 372634265#2 372634265#3-AddedOnRampEdge 372634265#3 gneE1 372634265#6-AddedOnRampEdge 372634265#6 372634265#7 372634265#8 372634265#9 gneE28 gneE40 gneE29 gneE41 gneE30 gneE43 gneE39 gneE34 gneE38 gneE35 gneE42 378235159#0 378235159#1 378235159#2 378235159#3 378235159#4"/>
    </vehicle>
    <vehicle id="31" depart="1.55" departLane="best" departPos="random" departSpeed="max">
        <route edges="732746860 378235159#6 378235159#7 378235159#8 372634267 372634265#3-AddedOnRampEdge 372634265#3 gneE1 372634265#6-AddedOnRampEdge 372634265#6 372634265#7 372634265#8 372634265#9 gneE28"/>
    </vehicle>
    <vehicle id="32" depart="1.60" departLane="best" departPos="random" departSpeed="max">
        <route edges="733263416 754831548 372634263#5-AddedOnRampEdge 372634263#5 372634263#5-AddedOffRampEdge 372634261 608991522#4 608991522#5 608991522#5-AddedOffRampEdge 608991522#6 608991522#7 608991522#8 608991522#9 372634266 372634265#0 372634265#1 372634265#2 372634265#3-AddedOnRampEdge 372634265#3 gneE1 372634265#6-AddedOnRampEdge 372634265#6 372634265#7 372634265#8 372634265#9 gneE28 gneE40 gneE29 gneE41 gneE30 gneE43 gneE39 gneE34 gneE38 gneE35 gneE42 378235159#0 378235159#1 378235159#2 378235159#3 378235159#4 378235159#4-AddedOffRampEdge 378235159#5 378235159#6 378235159#7 378235159#8 372634267"/>
    </vehicle>
    <vehicle id="33" depart="1.65" departLane="best" departPos="random" departSpeed="max">
        <route edges="372634263#7 372634263#8 gneE45 gneE47 gneE46 gneE48 gneE49 gneE50 gneE51 gneE52 gneE17 gneE18 gneE19 608991522#2 608991522#2-AddedOffRampEdge 608991522#3 608991522#4 608991522#5 608991522#5-AddedOffRampEdge 608991522#6 608991522#7 608991522#8 608991522#9 372634266 372634265#0 372634265#1 372634265#2 372634265#3-AddedOnRampEdge 372634265#3 gneE1 372634265#6-AddedOnRampEdge 372634265#6 372634265#7 372634265#8 372634265#9 gneE28 gneE40 gneE29 gneE41 gneE30 gneE43 gneE39 gneE34 gneE38 gneE35 gneE42 378235159#0 378235159#1 378235159#2 378235159#3 378235159#4 378235159#4-AddedOffRampEdge 378235159#5 378235159#6 378235159#7 378235159#8 372634267"/>
    </vehicle>
    <vehicle id="34" depart="1.70" departLane="best" departPos="random" departSpeed="max">
        <route edges="372634265#6-AddedOnRampEdge 372634265#6 372634265#7 372634265#8 372634265#9 gneE28 gneE40 gneE29 gneE41 gneE30 gneE43 gneE39 gneE34 gneE38 gneE35 gneE42 378235159#0 378235159#1 378235159#2 378235159#3 378235159#4 378235159#4-AddedOffRampEdge 378235159#5 378235159#6 378235159#7 378235159#8 378235159#9 378235159#10-AddedOnRampEdge 378235159#10 372634264 372634263#0 372634263#1 372634263#2 372634263#3 372634263#4 372634263#5-AddedOnRampEdge 372634263#5 372634263#5-AddedOffRampEdge 372634261 608991522#4 608991522#5 608991522#5-AddedOffRampEdge 608991522#6 608991522#7"/>
    </vehicle>
    <vehicle id="35" depart="1.75" departLane="best" departPos="random" departSpeed="max">
        <route edges="372634265#7 372634265#8 372634265#9 gneE28 gneE40 gneE29 gneE41 gneE30 gneE43 gneE39 gneE34 gneE38 gneE35 gneE42 378235159#0 378235159#1 378235159#2 378235159#3 378235159#4 378235159#4-AddedOffRampEdge 378235159#5 378235159#6 378235159#7 378235159#8 378235159#9 378235159#10-AddedOnRampEdge 378235159#10 372634264 372634263#0 372634263#1 372634263#2 372634263#3 372634263#4 372634263#5-AddedOnRampEdge 372634263#5 372634263#5-AddedOffRampEdge 372634263#6 372634263#7-AddedOnRampEdge 372634263#7 372634263#8 gneE45 gneE47 gneE46 gneE48 gneE49 gneE50 gneE51 gneE52 gneE17 gneE18 gneE19 608991522#2 608991522#2-AddedOffRampEdge 372634262"/>
    </vehicle>
    <vehicle id="36" depart="1.80" departLane="best" departPos="random" departSpeed="max">
        <route edges="372634263#7 372634263#8 gneE45 gneE47 gneE46 gneE48 gneE49 gneE50"/>
    </vehicle>
    <vehicle id="37" depart="1.85" departLane="best" departPos="random" departSpeed="max">
        <route edges="372634265#6 372634265#7 372634265#8 372634265#9"/>
    </vehicle>
    <vehicle id="38" depart="1.90" departLane="best" departPos="random" departSpeed="max">
        <route edges="gneE17 gneE18 gneE19 608991522#2 608991522#2-AddedOffRampEdge 608991522#3 608991522#4 608991522#5 608991522#5-AddedOffRampEdge 608991522#6 608991522#7 608991522#8 608991522#9 372634266 372634265#0 372634265#1 372634265#2 372634265#3-AddedOnRampEdge 372634265#3 gneE1 372634265#6-AddedOnRampEdge 372634265#6 372634265#7"/>
    </vehicle>
    <vehicle id="39" depart="1.95" departLane="best" departPos="random" departSpeed="max">
        <route edges="372634261 608991522#4 608991522#5 608991522#5-AddedOffRampEdge 608991522#6 608991522#7 608991522#8 608991522#9 372634266 372634265#0 372634265#1 372634268 378235159#10-AddedOnRampEdge 378235159#10 372634264 372634263#0 372634263#1 372634263#2 372634263#3 372634263#4 372634263#5-AddedOnRampEdge 372634263#5"/>
    </vehicle>
    <vehicle id="40" depart="2.00" departLane="best" departPos="random" departSpeed="max">
        <route edges="372634263#2 372634263#3 372634263#4 372634263#5-AddedOnRampEdge 372634263#5 372634263#5-AddedOffRampEdge 372634261"/>
    </vehicle>
    <vehicle id="41" depart="2.05" departLane="best" departPos="random" departSpeed="max">
        <route edges="372634263#5-AddedOnRampEdge 372634263#5 372634263#5-AddedOffRampEdge 372634263#6 372634263#7-AddedOnRampEdge 372634263#7 372634263#8 gneE45 gneE47 gneE46 gneE48 gneE49 gneE50 gneE51"/>
    </vehicle>
    <vehicle id="42" depart="2.10" departLane="best" departPos="random" departSpeed="max">
        <route edges="608991522#2-AddedOffRampEdge 608991522#3 608991522#4 608991522#5 608991522#5-AddedOffRampEdge 608991522#6 608991522#7 608991522#8 608991522#9 372634266 372634265#0 372634265#1 372634268 378235159#10-AddedOnRampEdge 378235159#10 372634264 372634263#0 372634263#1 372634263#2 372634263#3 372634263#4 372634263#5-AddedOnRampEdge 372634263#5"/>
    </vehicle>
    <vehicle id="43" depart="2.15" departLane="best" departPos="random" departSpeed="max">
        <route edges="608991522#5-AddedOffRampEdge 608991522#6 608991522#7 608991522#8 608991522#9 372634266 372634265#0 372634265#1 372634265#2 372634265#3-AddedOnRampEdge 372634265#3 gneE1 372634265#6-AddedOnRampEdge 372634265#6 372634265#7 372634265#8 372634265#9 gneE28 gneE40 gneE29 gneE41 gneE30 gneE43 gneE39 gneE34 gneE38 gneE35 gneE42 378235159#0 378235159#1 378235159#2 378235159#3"/>
    </vehicle>
    <vehicle id="44" depart="2.20" departLane="best" departPos="random" departSpeed="max">
        <route edges="gneE28 gneE40 gneE29 gneE41 gneE30 gneE43 gneE39 gneE34 gneE38 gneE35 gneE42 378235159#0 378235159#1 378235159#2 378235159#3 378235159#4 378235159#4-AddedOffRampEdge"/>
    </vehicle>
    <vehicle id="45" depart="2.25" departLane="best" departPos="random" departSpeed="max">
        <route edges="372634265#8 372634265#9 gneE28 gneE40 gneE29 gneE41 gneE30 gneE43 gneE39 gneE34 gneE38 gneE35 gneE42 378235159#0 378235159#1 378235159#2 378235159#3 378235159#4 378235159#4-AddedOffRampEdge 378235159#5 378235159#6 378235159#7 378235159#8 378235159#9 378235159#10-AddedOnRampEdge 378235159#10 372634264 372634263#0 372634263#1 372634263#2 372634263#3 372634263#4 372634263#5-AddedOnRampEdge 372634263#5 372634263#5-AddedOffRampEdge 372634263#6 372634263#7-AddedOnRampEdge 372634263#7"/>
    </vehicle>
    <vehicle id="46" depart="2.30" departLane="best" departPos="random" departSpeed="max">
        <route edges="gneE41 gneE30 gneE43 gneE39 gneE34 gneE38 gneE35 gneE42 378235159#0 378235159#1 378235159#2 378235159#3 378235159#4 378235159#4-AddedOffRampEdge 378235159#5 378235159#6 378235159#7 378235159#8 378235159#9 378235159#10-AddedOnRampEdge 378235159#10"/>
    </vehicle>
    <vehicle id="47" depart="2.35" departLane="best" departPos="random" departSpeed="max">
        <route edges="gneE29 gneE41 gneE30 gneE43 gneE39 gneE34 gneE38 gneE35 gneE42 378235159#0 378235159#1 378235159#2 378235159#3"/>
    </vehicle>
    <vehicle id="48" depart="2.40" departLane="best" departPos="random" departSpeed="max">
        <route edges="378235159#0 378235159#1 378235159#2 378235159#3 378235159#4 378235159#4-AddedOffRampEdge 378235159#5 378235159#6 378235159#7 378235159#8 378235159#9 378235159#10-AddedOnRampEdge 378235159#10 372634264 372634263#0 372634263#1 372634263#2 372634263#3 372634263#4 372634263#5-AddedOnRampEdge 372634263#5 372634263#5-AddedOffRampEdge 372634263#6 372634263#7-AddedOnRampEdge 372634263#7 372634263#8 gneE45 gneE47 gneE46 gneE48 gneE49 gneE50 gneE51"/>
    </vehicle>
    <vehicle id="49" depart="2.45" departLane="best" departPos="random" departSpeed="max">
        <route edges="372634263#7-AddedOnRampEdge 372634263#7 372634263#8 gneE45 gneE47 gneE46 gneE48 gneE49 gneE50 gneE51 gneE52 gneE17 gneE18"/>
    </vehicle>
    <vehicle id="50" depart="2.50" departLane="best" departPos="random" departSpeed="max">
        <route edges="372634267 372634265#3-AddedOnRampEdge 372634265#3 gneE1 372634265#6-AddedOnRampEdge 372634265#6 372634265#7 372634265#8 372634265#9 gneE28 gneE40"/>
    </vehicle>
    <vehicle id="51" depart="2.55" departLane="best" departPos="random" departSpeed="max">
        <route edges="608991522#6 608991522#7 608991522#8 608991522#9 372634266 372634265#0 372634265#1 372634268 378235159#10-AddedOnRampEdge 378235159#10 372634264 372634263#0 372634263#1 372634263#2 372634263#3 372634263#4 372634263#5-AddedOnRampEdge 372634263#5 372634263#5-AddedOffRampEdge 372634263#6 372634263#7-AddedOnRampEdge 372634263#7 372634263#8 gneE45"/>
    </vehicle>
    <vehicle id="52" depart="2.60" departLane="best" departPos="random" departSpeed="max">
        <route edges="378235159#0 378235159#1 378235159#2 378235159#3 378235159#4 378235159#4-AddedOffRampEdge 378235159#5 378235159#6 378235159#7 378235159#8 378235159#9 378235159#10-AddedOnRampEdge 378235159#10 372634264 372634263#0 372634263#1 372634263#2 372634263#3 372634263#4 372634263#5-AddedOnRampEdge 372634263#5 372634263#5-AddedOffRampEdge 372634263#6 372634263#7-AddedOnRampEdge 372634263#7 372634263#8 gneE45 gneE47 gneE46 gneE48 gneE49 gneE50 gneE51"/>
    </vehicle>
    <vehicle id="53" depart="2.65" departLane="best" departPos="random" departSpeed="max">
        <route edges="gneE49 gneE50 gneE51 gneE52 gneE17 gneE18 gneE19"/>
    </vehicle>
    <vehicle id="54" depart="2.70" departLane="best" departPos="random" departSpeed="max">
        <route edges="372634265#7 372634265#8 372634265#9 gneE28 gneE40 gneE29 gneE41 gneE30 gneE43 gneE39 gneE34 gneE38 gneE35 gneE42 378235159#0 378235159#1 378235159#2 378235159#3 378235159#4 378235159#4-AddedOffRampEdge 378235159#5 378235159#6 378235159#7 378235159#8 372634267 372634265#3-AddedOnRampEdge 372634265#3 gneE1 372634265#6-AddedOnRampEdge 372634265#6"/>
    </vehicle>
    <vehicle id="55" depart="2.75" departLane="best" departPos="random" departSpeed="max">
        <route edges="gneE19 608991522#2 608991522#2-AddedOffRampEdge 608991522#3 608991522#4 608991522#5 608991522#5-AddedOffRampEdge 608991522#6 608991522#7 608991522#8 608991522#9 372634266 372634265#0 372634265#1 372634268"/>
    </vehicle>
    <vehicle id="56" depart="2.80" departLane="best" departPos="random" departSpeed="max">
        <route edges="378235159#10-AddedOnRampEdge 378235159#10 372634264 372634263#0 372634263#1 372634263#2 372634263#3 372634263#4 372634263#5-AddedOnRampEdge 372634263#5 372634263#5-AddedOffRampEdge 372634263#6 372634263#7-AddedOnRampEdge"/>
    </vehicle>
    <vehicle id="57" depart="2.85" departLane="best" departPos="random" departSpeed="max">
        <route edges="gneE30 gneE43 gneE39 gneE34 gneE38 gneE35 gneE42 378235159#0 378235159#1 378235159#2 378235159#3 378235159#4 378235159#4-AddedOffRampEdge 378235159#5 378235159#6 378235159#7 378235159#8 378235159#9 378235159#10-AddedOnRampEdge 378235159#10 372634264"/>
    </vehicle>
    <vehicle id="58" depart="2.90" departLane="best" departPos="random" departSpeed="max">
        <route edges="gneE18 gneE19 608991522#2 608991522#2-AddedOffRampEdge 372634262"/>
    </vehicle>
    <vehicle id="59" depart="2.95" departLane="best" departPos="random" departSpeed="max">
        <route edges="gneE47 gneE46 gneE48 gneE49 gneE50 gneE51 gneE52 gneE17 gneE18 gneE19 608991522#2 608991522#2-AddedOffRampEdge 372634262 372634263#7-AddedOnRampEdge 372634263#7 372634263#8"/>
    </vehicle>
    <vehicle id="60" depart="3.00" departLane="best" departPos="random" departSpeed="max">
        <route edges="gneE38 gneE35 gneE42 378235159#0 378235159#1 378235159#2 378235159#3 378235159#4 378235159#4-AddedOffRampEdge 378235159#5 378235159#6 378235159#7 378235159#8 378235159#9 378235159#10-AddedOnRampEdge 378235159#10 372634264 372634263#0 372634263#1 372634263#2 372634263#3 372634263#4 372634263#5-AddedOnRampEdge 372634263#5 372634263#5-AddedOffRampEdge 372634261 608991522#4"/>
    </vehicle>
    <vehicle id="61" depart="3.05" departLane="best" departPos="random" departSpeed="max">
        <route edges="gneE35 gneE42 378235159#0 378235159#1 378235159#2 378235159#3 378235159#4 378235159#4-AddedOffRampEdge 378235159#5 378235159#6 378235159#7 378235159#8 378235159#9 378235159#10-AddedOnRampEdge 378235159#10 372634264 372634263#0 372634263#1 372634263#2 372634263#3"/>
    </vehicle>
    <vehicle id="62" depart="3.10" departLane="best" departPos="random" departSpeed="max">
        <route edges="378235159#10 372634264 372634263#0 372634263#1 372634263#2 372634263#3 372634263#4 372634263#5-AddedOnRampEdge 372634263#5 372634263#5-AddedOffRampEdge 372634261 608991522#4"/>
    </vehicle>
    <vehicle id="63" depart="3.15" departLane="best" departPos="random" departSpeed="max">
        <route edges="372634265#8 372634265#9 gneE28 gneE40 gneE29 gneE41 gneE30 gneE43 gneE39 gneE34 gneE38 gneE35 gneE42 378235159#0 378235159#1 378235159#2 378235159#3 378235159#4 378235159#4-AddedOffRampEdge 378235159#5 378235159#6 378235159#7 378235159#8 378235159#9 378235159#10-AddedOnRampEdge 378235159#10 372634264 372634263#0 372634263#1 372634263#2 372634263#3 372634263#4 372634263#5-AddedOnRampEdge 372634263#5 372634263#5-AddedOffRampEdge 372634261 608991522#4 608991522#5 608991522#5-AddedOffRampEdge 608991522#6 608991522#7"/>
    </vehicle>
    <vehicle id="64" depart="3.20" departLane="best" departPos="random" departSpeed="max">
        <route edges="gneE18 gneE19 608991522#2 608991522#2-AddedOffRampEdge 372634262 372634263#7-AddedOnRampEdge"/>
    </vehicle>
    <vehicle id="65" depart="3.25" departLane="best" departPos="random" departSpeed="max">
        <route edges="608991522#8 608991522#9 372634266 372634265#0 372634265#1 372634268 378235159#10-AddedOnRampEdge 378235159#10 372634264 372634263#0 372634263#1 372634263#2 372634263#3 372634263#4 372634263#5-AddedOnRampEdge 372634263#5 372634263#5-AddedOffRampEdge 372634263#6 372634263#7-AddedOnRampEdge 372634263#7 372634263#8 gneE45 gneE47"/>
    </vehicle>
    <vehicle id="66" depart="3.30" departLane="best" departPos="random" departSpeed="max">
        <route edges="754822745 608991522#7 608991522#8 608991522#9 372634266 372634265#0 372634265#1 372634268 378235159#10-AddedOnRampEdge 378235159#10 372634264 372634263#0 372634263#1 372634263#2 372634263#3 372634263#4 372634263#5-AddedOnRampEdge 372634263#5 372634263#5-AddedOffRampEdge 372634263#6 372634263#7-AddedOnRampEdge 372634263#7 372634263#8 gneE45 gneE47 gneE46 gneE48 gneE49 gneE50"/>
    </vehicle>
    <vehicle id="67" depart="3.35" departLane="best" departPos="random" departSpeed="max">
        <route edges="gneE34 gneE38 gneE35 gneE42 378235159#0 378235159#1 378235159#2 378235159#3 378235159#4 378235159#4-AddedOffRampEdge 378235159#5 378235159#6 378235159#7 378235159#8 378235159#9 378235159#10-AddedOnRampEdge 378235159#10 372634264 372634263#0 372634263#1 372634263#2 372634263#3 372634263#4 372634263#5-AddedOnRampEdge 372634263#5"/>
    </vehicle>
    <vehicle id="68" depart="3.40" departLane="best" departPos="random" departSpeed="max">
        <route edges="372634264 372634263#0 372634263#1 372634263#2 372634263#3 372634263#4 372634263#5-AddedOnRampEdge 372634263#5 372634263#5-AddedOffRampEdge 372634261 608991522#4 608991522#5 608991522#5-AddedOffRampEdge"/>
    </vehicle>
    <vehicle id="69" depart="3.45" departLane="best" departPos="random" departSpeed="max">