<?xml version="1.0" encoding="UTF-8"?>
<!-- generated on 2020-09-24 15:28:17.707421 by randomTrips.py v1_5_0+0464-744bef2e7c
  options: -n highway-br116.net.xml <doubleminus>trip-attributes=departLane="best" departSpeed="max" departPos="random" -r br116.rou.xml -b 0 -e 10 -p 0.05
-->
<routes xmlns:xsi="http://www.w3.org/2001/XMLSchema-instance" xsi:noNamespaceSchemaLocation="http://sumo.dlr.de/xsd/routes_file.xsd">
    <trip id="0" depart="0.00" from="372634265#9" to="372634263#7-AddedOnRampEdge" departLane="best" departSpeed="max" departPos="random"/>
    <trip id="1" depart="0.05" from="gneE35" to="608991522#5-AddedOffRampEdge" departLane="best" departSpeed="max" departPos="random"/>
    <trip id="2" depart="0.10" from="754831550" to="gneE17" departLane="best" departSpeed="max" departPos="random"/>
    <trip id="3" depart="0.15" from="gneE52" to="372634263#5-AddedOnRampEdge" departLane="best" departSpeed="max" departPos="random"/>
    <trip id="4" depart="0.20" from="gneE1" to="378235159#4-AddedOffRampEdge" departLane="best" departSpeed="max" departPos="random"/>
    <trip id="5" depart="0.25" from="378235159#10" to="378235159#2" departLane="best" departSpeed="max" departPos="random"/>
    <trip id="6" depart="0.30" from="gneE51" to="gneE51" departLane="best" departSpeed="max" departPos="random"/>
    <trip id="7" depart="0.35" from="608991522#2-AddedOffRampEdge" to="608991522#2" departLane="best" departSpeed="max" departPos="random"/>
    <trip id="8" depart="0.40" from="378235159#4" to="378235159#4-AddedOffRampEdge" departLane="best" departSpeed="max" departPos="random"/>
    <trip id="9" depart="0.45" from="gneE51" to="608991522#3" departLane="best" departSpeed="max" departPos="random"/>
    <trip id="10" depart="0.50" from="378235159#10-AddedOnRampEdge" to="372634265#6" departLane="best" departSpeed="max" departPos="random"/>
    <trip id="11" depart="0.55" from="732746860" to="372634265#6-AddedOnRampEdge" departLane="best" departSpeed="max" departPos="random"/>
    <trip id="12" depart="0.60" from="608991522#9" to="gneE50" departLane="best" departSpeed="max" departPos="random"/>
    <trip id="13" depart="0.65" from="608991522#2-AddedOffRampEdge" to="gneE45" departLane="best" departSpeed="max" departPos="random"/>
    <trip id="14" depart="0.70" from="372634265#6-AddedOnRampEdge" to="608991522#2" departLane="best" departSpeed="max" departPos="random"/>
    <trip id="15" depart="0.75" from="gneE51" to="372634267" departLane="best" departSpeed="max" departPos="random"/>
    <trip id="16" depart="0.80" from="608991522#4" to="gneE1" departLane="best" departSpeed="max" departPos="random"/>
    <trip id="17" depart="0.85" from="gneE39" to="378235159#6" departLane="best" departSpeed="max" departPos="random"/>
    <trip id="18" depart="0.90" from="gneE19" to="gneE42" departLane="best" departSpeed="max" departPos="random"/>
    <trip id="19" depart="0.95" from="378235159#3" to="378235159#9" departLane="best" departSpeed="max" departPos="random"/>
    <trip id="20" depart="1.00" from="gneE45" to="372634264" departLane="best" departSpeed="max" departPos="random"/>
    <trip id="21" depart="1.05" from="gneE48" to="gneE18" departLane="best" departSpeed="max" departPos="random"/>
    <trip id="22" depart="1.10" from="372634263#5" to="gneE41" departLane="best" departSpeed="max" departPos="random"/>
    <trip id="23" depart="1.15" from="372634265#8" to="378235159#4" departLane="best" departSpeed="max" departPos="random"/>
    <trip id="24" depart="1.20" from="372634261" to="gneE39" departLane="best" departSpeed="max" departPos="random"/>
    <trip id="25" depart="1.25" from="gneE40" to="608991522#6" departLane="best" departSpeed="max" departPos="random"/>
    <trip id="26" depart="1.30" from="608991522#2" to="372634263#7-AddedOnRampEdge" departLane="best" departSpeed="max" departPos="random"/>
    <trip id="27" depart="1.35" from="608991522#9" to="gneE35" departLane="best" departSpeed="max" departPos="random"/>
    <trip id="28" depart="1.40" from="gneE51" to="608991522#9" departLane="best" departSpeed="max" departPos="random"/>
    <trip id="29" depart="1.45" from="gneE48" to="378235159#4-AddedOffRampEdge" departLane="best" departSpeed="max" departPos="random"/>
    <trip id="30" depart="1.50" from="372634263#1" to="378235159#4" departLane="best" departSpeed="max" departPos="random"/>
    <trip id="31" depart="1.55" from="732746860" to="gneE28" departLane="best" departSpeed="max" departPos="random"/>
    <trip id="32" depart="1.60" from="733263416" to="372634267" departLane="best" departSpeed="max" departPos="random"/>
    <trip id="33" depart="1.65" from="372634263#7" to="372634267" departLane="best" departSpeed="max" departPos="random"/>
    <trip id="34" depart="1.70" from="372634265#6-AddedOnRampEdge" to="608991522#7" departLane="best" departSpeed="max" departPos="random"/>
    <trip id="35" depart="1.75" from="372634265#7" to="372634262" departLane="best" departSpeed="max" departPos="random"/>
    <trip id="36" depart="1.80" from="372634263#7" to="gneE50" departLane="best" departSpeed="max" departPos="random"/>
    <trip id="37" depart="1.85" from="372634265#6" to="372634265#9" departLane="best" departSpeed="max" departPos="random"/>
    <trip id="38" depart="1.90" from="gneE17" to="372634265#7" departLane="best" departSpeed="max" departPos="random"/>
    <trip id="39" depart="1.95" from="372634261" to="372634263#5" departLane="best" departSpeed="max" departPos="random"/>
    <trip id="40" depart="2.00" from="372634263#2" to="372634261" departLane="best" departSpeed="max" departPos="random"/>
    <trip id="41" depart="2.05" from="372634263#5-AddedOnRampEdge" to="gneE51" departLane="best" departSpeed="max" departPos="random"/>
    <trip id="42" depart="2.10" from="608991522#2-AddedOffRampEdge" to="372634263#5" departLane="best" departSpeed="max" departPos="random"/>
    <trip id="43" depart="2.15" from="608991522#5-AddedOffRampEdge" to="378235159#3" departLane="best" departSpeed="max" departPos="random"/>
    <trip id="44" depart="2.20" from="gneE28" to="378235159#4-AddedOffRampEdge" departLane="best" departSpeed="max" departPos="random"/>
    <trip id="45" depart="2.25" from="372634265#8" to="372634263#7" departLane="best" departSpeed="max" departPos="random"/>
    <trip id="46" depart="2.30" from="gneE41" to="378235159#10" departLane="best" departSpeed="max" departPos="random"/>
    <trip id="47" depart="2.35" from="gneE29" to="378235159#3" departLane="best" departSpeed="max" departPos="random"/>
    <trip id="48" depart="2.40" from="378235159#0" to="gneE51" departLane="best" departSpeed="max" departPos="random"/>
    <trip id="49" depart="2.45" from="372634263#7-AddedOnRampEdge" to="gneE18" departLane="best" departSpeed="max" departPos="random"/>
    <trip id="50" depart="2.50" from="372634267" to="gneE40" departLane="best" departSpeed="max" departPos="random"/>
    <trip id="51" depart="2.55" from="608991522#6" to="gneE45" departLane="best" departSpeed="max" departPos="random"/>
    <trip id="52" depart="2.60" from="378235159#0" to="gneE51" departLane="best" departSpeed="max" departPos="random"/>
    <trip id="53" depart="2.65" from="gneE49" to="gneE19" departLane="best" departSpeed="max" departPos="random"/>
    <trip id="54" depart="2.70" from="372634265#7" to="372634265#6" departLane="best" departSpeed="max" departPos="random"/>
    <trip id="55" depart="2.75" from="gneE19" to="372634268" departLane="best" departSpeed="max" departPos="random"/>
    <trip id="56" depart="2.80" from="378235159#10-AddedOnRampEdge" to="372634263#7-AddedOnRampEdge" departLane="best" departSpeed="max" departPos="random"/>
    <trip id="57" depart="2.85" from="gneE30" to="372634264" departLane="best" departSpeed="max" departPos="random"/>
    <trip id="58" depart="2.90" from="gneE18" to="372634262" departLane="best" departSpeed="max" departPos="random"/>
    <trip id="59" depart="2.95" from="gneE47" to="372634263#8" departLane="best" departSpeed="max" departPos="random"/>
    <trip id="60" depart="3.00" from="gneE38" to="608991522#4" departLane="best" departSpeed="max" departPos="random"/>
    <trip id="61" depart="3.05" from="gneE35" to="372634263#3" departLane="best" departSpeed="max" departPos="random"/>
    <trip id="62" depart="3.10" from="378235159#10" to="608991522#4" departLane="best" departSpeed="max" departPos="random"/>
    <trip id="63" depart="3.15" from="372634265#8" to="608991522#7" departLane="best" departSpeed="max" departPos="random"/>
    <trip id="64" depart="3.20" from="gneE18" to="372634263#7-AddedOnRampEdge" departLane="best" departSpeed="max" departPos="random"/>
    <trip id="65" depart="3.25" from="608991522#8" to="gneE47" departLane="best" departSpeed="max" departPos="random"/>
    <trip id="66" depart="3.30" from="754822745" to="gneE50" departLane="best" departSpeed="max" departPos="random"/>
    <trip id="67" depart="3.35" from="gneE34" to="372634263#5" departLane="best" departSpeed="max" departPos="random"/>
    <trip id="68" depart="3.40" from="372634264" to="608991522#5-AddedOffRampEdge" departLane="best" departSpeed="max" departPos="random"/>
    <trip id="69" depart="3.45" from="608991522#5-AddedOffRampEdge" to="gneE30" departLane="best" departSpeed="max" departPos="random"/>
    <trip id="70" depart="3.50" from="378235159#7" to="gneE19" departLane="best" departSpeed="max" departPos="random"/>
    <trip id="71" depart="3.55" from="378235159#9" to="gneE42" departLane="best" departSpeed="max" departPos="random"/>
    <trip id="72" depart="3.60" from="372634265#0" to="372634263#1" departLane="best" departSpeed="max" departPos="random"/>
    <trip id="73" depart="3.65" from="372634265#2" to="378235159#10-AddedOnRampEdge" departLane="best" departSpeed="max" departPos="random"/>
    <trip id="74" depart="3.70" from="378235159#8" to="378235159#3" departLane="best" departSpeed="max" departPos="random"/>
    <trip id="75" depart="3.75" from="372634265#8" to="608991522#2" departLane="best" departSpeed="max" departPos="random"/>
    <trip id="76" depart="3.80" from="372634263#8" to="372634265#6-AddedOnRampEdge" departLane="best" departSpeed="max" departPos="random"/>
    <trip id="77" depart="3.85" from="372634265#2" to="372634263#5" departLane="best" departSpeed="max" departPos="random"/>
    <trip id="78" depart="3.90" from="608991522#7" to="gneE43" departLane="best" departSpeed="max" departPos="random"/>
    <trip id="79" depart="3.95" from="gneE50" to="gneE49" departLane="best" departSpeed="max" departPos="random"/>
    <trip id="80" depart="4.00" from="733263416" to="372634265#3-AddedOnRampEdge" departLane="best" departSpeed="max" departPos="random"/>
    <trip id="81" depart="4.05" from="372634264" to="608991522#5" departLane="best" departSpeed="max" departPos="random"/>
    <trip id="82" depart="4.10" from="gneE48" to="372634265#0" departLane="best" departSpeed="max" departPos="random"/>
    <trip id="83" depart="4.15" from="gneE18" to="372634263#2" departLane="best" departSpeed="max" departPos="random"/>
    <trip id="84" depart="4.20" from="372634265#8" to="gneE46" departLane="best" departSpeed="max" departPos="random"/>
    <trip id="85" depart="4.25" from="372634263#6" to="378235159#2" departLane="best" departSpeed="max" departPos="random"/>
    <trip id="86" depart="4.30" from="608991522#4" to="372634263#4" departLane="best" departSpeed="max" departPos="random"/>
    <trip id="87" depart="4.35" from="608991522#5-AddedOffRampEdge" to="608991522#3" departLane="best" departSpeed="max" departPos="random"/>
    <trip id="88" depart="4.40" from="754822745" to="gneE28" departLane="best" departSpeed="max" departPos="random"/>
    <trip id="89" depart="4.45" from="gneE28" to="372634265#8" departLane="best" departSpeed="max" departPos="random"/>
    <trip id="90" depart="4.50" from="608991522#9" to="733263416" departLane="best" departSpeed="max" departPos="random"/>
    <trip id="91" depart="4.55" from="372634263#5-AddedOffRampEdge" to="gneE40" departLane="best" departSpeed="max" departPos="random"/>
    <trip id="92" depart="4.60" from="372634265#6" to="gneE50" departLane="best" departSpeed="max" departPos="random"/>
    <trip id="93" depart="4.65" from="gneE28" to="gneE47" departLane="best" departSpeed="max" departPos="random"/>
    <trip id="94" depart="4.70" from="378235159#1" to="378235159#10-AddedOnRampEdge" departLane="best" departSpeed="max" departPos="random"/>
    <trip id="95" depart="4.75" from="372634265#2" to="gneE35" departLane="best" departSpeed="max" departPos="random"/>
    <trip id="96" depart="4.80" from="gneE52" to="gneE52" departLane="best" departSpeed="max" departPos="random"/>
    <trip id="97" depart="4.85" from="gneE43" to="608991522#5" departLane="best" departSpeed="max" departPos="random"/>
    <trip id="98" depart="4.90" from="372634263#1" to="372634263#7" departLane="best" departSpeed="max" departPos="random"/>
    <trip id="99" depart="4.95" from="372634265#2" to="378235159#0" departLane="best" departSpeed="max" departPos="random"/>
    <trip id="100" depart="5.00" from="372634265#3" to="608991522#9" departLane="best" departSpeed="max" departPos="random"/>
    <trip id="101" depart="5.05" from="608991522#5-AddedOffRampEdge" to="gneE29" departLane="best" departSpeed="max" departPos="random"/>
    <trip id="102" depart="5.10" from="372634263#6" to="754831550" departLane="best" departSpeed="max" departPos="random"/>
    <trip id="103" depart="5.15" from="608991522#4" to="608991522#5" departLane="best" departSpeed="max" departPos="random"/>
    <trip id="104" depart="5.20" from="gneE35" to="732746860" departLane="best" departSpeed="max" departPos="random"/>
    <trip id="105" depart="5.25" from="gneE51" to="608991522#2-AddedOffRampEdge" departLane="best" departSpeed="max" departPos="random"/>
    <trip id="106" depart="5.30" from="378235159#0" to="gneE29" departLane="best" departSpeed="max" departPos="random"/>
    <trip id="107" depart="5.35" from="754831550" to="372634263#7" departLane="best" departSpeed="max" departPos="random"/>
    <trip id="108" depart="5.40" from="378235159#5" to="gneE17" departLane="best" departSpeed="max" departPos="random"/>
    <trip id="109" depart="5.45" from="372634263#5-AddedOnRampEdge" to="gneE43" departLane="best" departSpeed="max" departPos="random"/>
    <trip id="110" depart="5.50" from="378235159#7" to="gneE39" departLane="best" departSpeed="max" departPos="random"/>
    <trip id="111" depart="5.55" from="gneE38" to="608991522#2" departLane="best" departSpeed="max" departPos="random"/>
    <trip id="112" depart="5.60" from="372634265#6-AddedOnRampEdge" to="gneE46" departLane="best" departSpeed="max" departPos="random"/>
    <trip id="113" depart="5.65" from="378235159#9" to="372634265#3" departLane="best" departSpeed="max" departPos="random"/>
    <trip id="114" depart="5.70" from="gneE35" to="gneE30" departLane="best" departSpeed="max" departPos="random"/>
    <trip id="115" depart="5.75" from="754822745" to="gneE40" departLane="best" departSpeed="max" departPos="random"/>
    <trip id="116" depart="5.80" from="372634263#7-AddedOnRampEdge" to="378235159#6" departLane="best" departSpeed="max" departPos="random"/>
    <trip id="117" depart="5.85" from="gneE17" to="gneE42" departLane="best" departSpeed="max" departPos="random"/>
    <trip id="118" depart="5.90" from="378235159#10" to="372634263#8" departLane="best" departSpeed="max" departPos="random"/>
    <trip id="119" depart="5.95" from="gneE35" to="gneE42" departLane="best" departSpeed="max" departPos="random"/>
    <trip id="120" depart="6.00" from="733263416" to="gneE18" departLane="best" departSpeed="max" departPos="random"/>
    <trip id="121" depart="6.05" from="608991522#9" to="gneE51" departLane="best" departSpeed="max" departPos="random"/>
    <trip id="122" depart="6.10" from="378235159#6" to="378235159#6" departLane="best" departSpeed="max" departPos="random"/>
    <trip id="123" depart="6.15" from="372634265#3-AddedOnRampEdge" to="gneE48" departLane="best" departSpeed="max" departPos="random"/>
    <trip id="124" depart="6.20" from="754831548" to="378235159#4" departLane="best" departSpeed="max" departPos="random"/>
    <trip id="125" depart="6.25" from="372634263#1" to="378235159#10-AddedOnRampEdge" departLane="best" departSpeed="max" departPos="random"/>
    <trip id="126" depart="6.30" from="608991522#6" to="378235159#7" departLane="best" departSpeed="max" departPos="random"/>
    <trip id="127" depart="6.35" from="372634264" to="733263416" departLane="best" departSpeed="max" departPos="random"/>
    <trip id="128" depart="6.40" from="378235159#2" to="gneE46" departLane="best" departSpeed="max" departPos="random"/>
    <trip id="129" depart="6.45" from="608991522#7" to="608991522#4" departLane="best" departSpeed="max" departPos="random"/>
    <trip id="130" depart="6.50" from="372634262" to="gneE52" departLane="best" departSpeed="max" departPos="random"/>
    <trip id="131" depart="6.55" from="608991522#7" to="372634265#8" departLane="best" departSpeed="max" departPos="random"/>
    <trip id="132" depart="6.60" from="gneE17" to="378235159#4" departLane="best" departSpeed="max" departPos="random"/>
    <trip id="133" depart="6.65" from="gneE47" to="372634263#0" departLane="best" departSpeed="max" departPos="random"/>
    <trip id="134" depart="6.70" from="378235159#2" to="372634265#0" departLane="best" departSpeed="max" departPos="random"/>
    <trip id="135" depart="6.75" from="gneE52" to="608991522#7" departLane="best" departSpeed="max" departPos="random"/>
    <trip id="136" depart="6.80" from="608991522#2" to="608991522#2-AddedOffRampEdge" departLane="best" departSpeed="max" departPos="random"/>
    <trip id="137" depart="6.85" from="372634265#1" to="gneE1" departLane="best" departSpeed="max" departPos="random"/>
    <trip id="138" depart="6.90" from="gneE45" to="608991522#6" departLane="best" departSpeed="max" departPos="random"/>
    <trip id="139" depart="6.95" from="gneE50" to="372634263#1" departLane="best" departSpeed="max" departPos="random"/>
    <trip id="140" depart="7.00" from="gneE30" to="gneE43" departLane="best" departSpeed="max" departPos="random"/>
    <trip id="141" depart="7.05" from="754822745" to="gneE51" departLane="best" departSpeed="max" departPos="random"/>
    <trip id="142" depart="7.10" from="378235159#5" to="378235159#10-AddedOnRampEdge" departLane="best" departSpeed="max" departPos="random"/>
    <trip id="143" depart="7.15" from="754831550" to="372634263#6" departLane="best" departSpeed="max" departPos="random"/>
    <trip id="144" depart="7.20" from="gneE18" to="gneE49" departLane="best" departSpeed="max" departPos="random"/>
    <trip id="145" depart="7.25" from="372634265#2" to="378235159#7" departLane="best" departSpeed="max" departPos="random"/>
    <trip id="146" depart="7.30" from="gneE30" to="378235159#0" departLane="best" departSpeed="max" departPos="random"/>
    <trip id="147" depart="7.35" from="372634265#3" to="gneE43" departLane="best" departSpeed="max" departPos="random"/>
    <trip id="148" depart="7.40" from="378235159#6" to="378235159#0" departLane="best" departSpeed="max" departPos="random"/>
    <trip id="149" depart="7.45" from="372634263#7" to="378235159#8" departLane="best" departSpeed="max" departPos="random"/>
    <trip id="150" depart="7.50" from="372634263#3" to="378235159#9" departLane="best" departSpeed="max" departPos="random"/>
    <trip id="151" depart="7.55" from="gneE19" to="gneE52" departLane="best" departSpeed="max" departPos="random"/>
    <trip id="152" depart="7.60" from="608991522#2" to="608991522#6" departLane="best" departSpeed="max" departPos="random"/>
    <trip id="153" depart="7.65" from="gneE42" to="378235159#0" departLane="best" departSpeed="max" departPos="random"/>
    <trip id="154" depart="7.70" from="gneE28" to="378235159#2" departLane="best" departSpeed="max" departPos="random"/>
    <trip id="155" depart="7.75" from="gneE35" to="378235159#9" departLane="best" departSpeed="max" departPos="random"/>
    <trip id="156" depart="7.80" from="608991522#3" to="378235159#7" departLane="best" departSpeed="max" departPos="random"/>
    <trip id="157" depart="7.85" from="gneE40" to="372634263#8" departLane="best" departSpeed="max" departPos="random"/>
    <trip id="158" depart="7.90" from="372634263#3" to="372634263#7-AddedOnRampEdge" departLane="best" departSpeed="max" departPos="random"/>
    <trip id="159" depart="7.95" from="378235159#4-AddedOffRampEdge" to="gneE35" departLane="best" departSpeed="max" departPos="random"/>
    <trip id="160" depart="8.00" from="gneE35" to="608991522#5" departLane="best" departSpeed="max" departPos="random"/>
    <trip id="161" depart="8.05" from="608991522#2" to="372634265#7" departLane="best" departSpeed="max" departPos="random"/>
    <trip id="162" depart="8.10" from="378235159#1" to="372634265#6-AddedOnRampEdge" departLane="best" departSpeed="max" departPos="random"/>
    <trip id="163" depart="8.15" from="372634263#4" to="gneE29" departLane="best" departSpeed="max" departPos="random"/>
    <trip id="164" depart="8.20" from="gneE50" to="gneE1" departLane="best" departSpeed="max" departPos="random"/>
    <trip id="165" depart="8.25" from="gneE50" to="372634263#7-AddedOnRampEdge" departLane="best" departSpeed="max" departPos="random"/>
    <trip id="166" depart="8.30" from="gneE43" to="608991522#2-AddedOffRampEdge" departLane="best" departSpeed="max" departPos="random"/>
    <trip id="167" depart="8.35" from="gneE43" to="378235159#5" departLane="best" departSpeed="max" departPos="random"/>
    <trip id="168" depart="8.40" from="gneE49" to="378235159#2" departLane="best" departSpeed="max" departPos="random"/>
    <trip id="169" depart="8.45" from="372634263#0" to="gneE49" departLane="best" departSpeed="max" departPos="random"/>
    <trip id="170" depart="8.50" from="372634265#9" to="608991522#6" departLane="best" departSpeed="max" departPos="random"/>
    <trip id="171" depart="8.55" from="378235159#4" to="372634265#6" departLane="best" departSpeed="max" departPos="random"/>
    <trip id="172" depart="8.60" from="gneE40" to="gneE18" departLane="best" departSpeed="max" departPos="random"/>
    <trip id="173" depart="8.65" from="gneE30" to="372634263#3" departLane="best" departSpeed="max" departPos="random"/>
    <trip id="174" depart="8.70" from="372634263#2" to="608991522#7" departLane="best" departSpeed="max" departPos="random"/>
    <trip id="175" depart="8.75" from="gneE1" to="378235159#2" departLane="best" departSpeed="max" departPos="random"/>
    <trip id="176" depart="8.80" from="372634265#9" to="gneE41" departLane="best" departSpeed="max" departPos="random"/>
    <trip id="177" depart="8.85" from="372634265#2" to="372634265#6" departLane="best" departSpeed="max" departPos="random"/>
    <trip id="178" depart="8.90" from="732746860" to="733263416" departLane="best" departSpeed="max" departPos="random"/>
    <trip id="179" depart="8.95" from="608991522#8" to="378235159#10-AddedOnRampEdge" departLane="best" departSpeed="max" departPos="random"/>
    <trip id="180" depart="9.00" from="372634265#3-AddedOnRampEdge" to="gneE45" departLane="best" departSpeed="max" departPos="random"/>
    <trip id="181" depart="9.05" from="gneE40" to="gneE52" departLane="best" departSpeed="max" departPos="random"/>
    <trip id="182" depart="9.10" from="372634263#0" to="608991522#9" departLane="best" departSpeed="max" departPos="random"/>
    <trip id="183" depart="9.15" from="754822745" to="372634263#5" departLane="best" departSpeed="max" departPos="random"/>
    <trip id="184" depart="9.20" from="372634263#5-AddedOnRampEdge" to="372634263#3" departLane="best" departSpeed="max" departPos="random"/>
    <trip id="185" depart="9.25" from="372634263#5-AddedOnRampEdge" to="732746860" departLane="best" departSpeed="max" departPos="random"/>
    <trip id="186" depart="9.30" from="gneE46" to="372634263#7" departLane="best" departSpeed="max" departPos="random"/>
    <trip id="187" depart="9.35" from="gneE51" to="372634265#1" departLane="best" departSpeed="max" departPos="random"/>
    <trip id="188" depart="9.40" from="608991522#3" to="372634263#5-AddedOnRampEdge" departLane="best" departSpeed="max" departPos="random"/>
    <trip id="189" depart="9.45" from="608991522#3" to="608991522#9" departLane="best" departSpeed="max" departPos="random"/>
    <trip id="190" depart="9.50" from="372634263#5-AddedOffRampEdge" to="608991522#5-AddedOffRampEdge" departLane="best" departSpeed="max" departPos="random"/>
    <trip id="191" depart="9.55" from="372634263#8" to="608991522#6" departLane="best" departSpeed="max" departPos="random"/>
    <trip id="192" depart="9.60" from="378235159#5" to="754831550" departLane="best" departSpeed="max" departPos="random"/>
    <trip id="193" depart="9.65" from="gneE45" to="gneE46" departLane="best" departSpeed="max" departPos="random"/>
    <trip id="194" depart="9.70" from="378235159#10-AddedOnRampEdge" to="372634265#0" departLane="best" departSpeed="max" departPos="random"/>
    <trip id="195" depart="9.75" from="378235159#10" to="608991522#6" departLane="best" departSpeed="max" departPos="random"/>
    <trip id="196" depart="9.80" from="608991522#9" to="372634263#7-AddedOnRampEdge" departLane="best" departSpeed="max" departPos="random"/>
    <trip id="197" depart="9.85" from="372634265#8" to="372634264" departLane="best" departSpeed="max" departPos="random"/>
    <trip id="198" depart="9.90" from="372634263#5-AddedOffRampEdge" to="372634261" departLane="best" departSpeed="max" departPos="random"/>
    <trip id="199" depart="9.95" from="378235159#3" to="gneE52" departLane="best" departSpeed="max" departPos="random"/>
</routes>
